1

                    Execution started at 20170605.160343         



                    ---------------------------------------
                                     SWAN
                    SIMULATION OF WAVES IN NEAR SHORE AREAS
                             VERSION NUMBER 41.10A              
                    ---------------------------------------


    
 $
    
 
    
 PROJECT '1DConceptmodel' '2017'
    
         'Dam transmissie'
    
         'Analysis of transmission modelling'
    
         'RUN070'
    
 $
    
 MODE ONED
    
 SET LEVEL=2  DEPMIN=0.01 MAXMES=200 MAXERR=1 RHO=1000
    
 $
    
 CGRID  XPC=0 YPC=0 ALPC=0. XLENC=100,YLENC=0, MXC=200, &
        MYC=0, CIRCLE  MDC=36 FLOW = 0.16667 FHIGH = 0.91667
 Number of meshes in sigma-space: MSC-1 =  18
    
 INP BOT  XPINP=0 YPINP=0 ALPINP=0.0 MXINP=100  MYINP=0 &
          DXINP=1 DYINP=1 EXCEPTION -99
    
 READ BOT FAC=1.0 'dam_5.bot'  IDLA=3  NHEDF=0  FREE
    
 BOUND SIDE WEST CON 2 3 0 2
    
 $
    
 BREAK $CON 1 0.65
    
 FRIC JONS 0.038
    
 Tri 1 0.8 0.91667
    
 OFF QUAD
    
 $OFF WCAP
    
 $OFF BREAK
    
 LIMITER ursell=10 qb=1
    
 NUM STOPC 0.00 0.01 0.001 99.5 STAT 50    ALFA=0.01
    
 OUTPUT OPTIONS '%' TABLE 16 BLOCK 9 1000 SPEC 8
    
 TABLE  'COMPGRID' HEADER 'dam_5_RUN070.tab'  XP YP DEPTH HSIG TMM10 TPS TM01 TM02 &
    DIR DSPR STEEP DISSIP DISSU DISB DISWCAP REDIST REDTRIAD REDQUAD GENERAT GENWIND
    
 COMPUTE
 ** Warning          : Limiter is de-activated in case of no quadruplets

----------------------------------------------------------------
                  COMPUTATIONAL PART OF SWAN
----------------------------------------------------------------

 One-dimensional mode of SWAN is activated
 Gridresolution       : MXC             201 MYC              1
                      : MCGRD           202
                      : MSC              19 MDC             36
                      : MTC               1
                      : NSTATC            0 ITERMX          50
 Propagation flags    : ITFRE             1 IREFR            1
 Source term flags    : IBOT              1 ISURF            1
                      : IWCAP             1 IWIND            0
                      : ITRIAD            1 IQUAD            0
                      : IVEG              0 ITURBV           0
                      : IMUD              0
 Spatial step         : DX       0.5000E+00 DY      0.5000E+00
 Spectral bin         : df/f     0.9934E-01 DDIR    0.1000E+02
 Physical constants   : GRAV     0.9810E+01 RHO     0.1000E+04
 Wind input           : WSPEED   0.0000E+00 DIR     0.0000E+00
 Tail parameters      : E(f)     0.4000E+01 E(k)    0.2500E+01
                      : A(f)     0.5000E+01 A(k)    0.3000E+01
 Accuracy parameters  : DREL     0.1000E-01 NPNTS   0.9950E+02
                      : DHABS    0.0000E+00 CURVAT  0.1000E-02
                      : GRWMX    0.1000E+21
 Drying/flooding      : LEVEL    0.2000E+01 DEPMIN  0.1000E-01
 The Cartesian convention for wind and wave directions is used
 Scheme for geographic propagation is SORDUP
 Scheme geogr. space  : PROPSC            2 ICMAX            7
 Scheme spectral space: CSS      0.5000E+00 CDD     0.5000E+00
 Current is off
 Quadruplets is off
 Triads               : ITRIAD            1 TRFAC   0.8000E+00
                      : CUTFR    0.9167E+00 URCRI   0.2000E+00
 Minimum Ursell nr for Snl3 :    0.1000E-01
 JONSWAP (`73)        : GAMMA    0.3800E-01
 Vegetation is off
 Turbulence is off
 Fluid mud is off
 W-cap Komen (`84)    : EMPCOF (CDS2):   0.2360E-04
 W-cap Komen (`84)    : APM (STPM)   :   0.3020E-02
 W-cap Komen (`84)    : POWST        :   0.2000E+01
 W-cap Komen (`84)    : DELTA        :   0.1000E+01
 W-cap Komen (`84)    : POWK         :   0.1000E+01
 Battjes&Janssen (`78): ALPHA    0.1000E+01 GAMMA   0.7300E+00
 Set-up is off
 Diffraction is off
 Janssen (`89,`90)    : ALPHA    0.1000E-01 KAPPA   0.4100E+00
 Janssen (`89,`90)    : RHOA     0.1280E+01 RHOW    0.1000E+04
 
 1st and 2nd gen. wind: CF10     0.1880E+03 CF20    0.5900E+00
                      : CF30     0.1200E+00 CF40    0.2500E+03
                      : CF50     0.2300E-02 CF60   -0.2230E+00
                      : CF70     0.0000E+00 CF80   -0.5600E+00
                      : RHOAW    0.1280E-02 EDMLPM  0.3600E-02
                      : CDRAG    0.1230E-02 UMIN    0.1000E+01
                      : LIM_PM   0.1300E+00
 
 iteration    1; sweep 1
 iteration    1; sweep 2
 iteration    1; sweep 3
 iteration    1; sweep 4
 not possible to compute, first iteration

 iteration    2; sweep 1
 iteration    2; sweep 2
 iteration    2; sweep 3
 iteration    2; sweep 4
 accuracy OK in   0.00 % of wet grid points ( 99.50 % required)

 iteration    3; sweep 1
 iteration    3; sweep 2
 iteration    3; sweep 3
 iteration    3; sweep 4
 accuracy OK in   0.50 % of wet grid points ( 99.50 % required)

 iteration    4; sweep 1
 iteration    4; sweep 2
 iteration    4; sweep 3
 iteration    4; sweep 4
 accuracy OK in   0.50 % of wet grid points ( 99.50 % required)

 iteration    5; sweep 1
 iteration    5; sweep 2
 iteration    5; sweep 3
 iteration    5; sweep 4
 accuracy OK in  27.87 % of wet grid points ( 99.50 % required)

 iteration    6; sweep 1
 iteration    6; sweep 2
 iteration    6; sweep 3
 iteration    6; sweep 4
 accuracy OK in  73.64 % of wet grid points ( 99.50 % required)

 iteration    7; sweep 1
 iteration    7; sweep 2
 iteration    7; sweep 3
 iteration    7; sweep 4
 accuracy OK in 100.00 % of wet grid points ( 99.50 % required)

 
    
 STOP
